%chk=1.chk
# b3lyp/6-31g(d) gfinput pop=full iop(3/33=1)

Title Card Required

0 1
 C        -3.03619100   -1.32818900   -0.48434600
 C        -1.65919300   -1.11392400   -0.52455400
 C        -1.09677800    0.07320600   -0.02538600
 C        -1.96300900    1.03916000    0.51453700
 C        -3.34023400    0.82648100    0.55407900
 C        -3.88361200   -0.35877900    0.05519300
 H        -3.44855600   -2.25110200   -0.88406500
 H        -1.01179600   -1.86340800   -0.97129500
 H        -1.54838300    1.95346400    0.93003300
 H        -3.98927600    1.58512500    0.98391500
 H        -4.95702300   -0.52527100    0.08619500
 C         0.37089900    0.30163400   -0.06726200
 C         0.89644100    1.57135900   -0.35426900
 C         1.26965400   -0.74850000    0.18396800
 C         2.27516900    1.77373600   -0.38611500
 H         0.22296500    2.39452800   -0.57545200
 C         2.65503900   -0.56227300    0.15195500
 H         0.87599800   -1.72987900    0.43791900
 C         3.14957500    0.71726800   -0.13467300
 H         2.67006700    2.76077200   -0.61313200
 H         4.22406200    0.88541500   -0.15804300
 C         3.59796500   -1.71571600    0.40858100
 H         3.10376500   -2.52320200    0.95853300
 H         3.97155700   -2.14130500   -0.53245200
 H         4.47227300   -1.39791300    0.98759700


--Link1--

%chk=2.chk
# b3lyp/6-31g(d) gfinput pop=full iop(3/33=1)

Title Card Required

0 1
 C        -3.02898800   -1.37711300   -0.37021200
 C        -1.65359600   -1.15825600   -0.42449800
 C        -1.09808400    0.07775200   -0.04915600
 C        -1.97624000    1.08222600    0.39476200
 C        -3.35209300    0.86564200    0.44778100
 C        -3.88673400   -0.36569800    0.06528800
 H        -3.43173000   -2.33912100   -0.67666300
 H        -1.00487900   -1.94617000   -0.79587200
 H        -1.57518800    2.03409300    0.73020500
 H        -4.00683800    1.65855100    0.80011300
 H        -4.95913200   -0.53584500    0.10789000
 C         0.37101500    0.30438600   -0.08441100
 C         0.90310000    1.58697300   -0.29612600
 C         1.27066900   -0.75346200    0.13358600
 C         2.28148600    1.79121700   -0.30079200
 H         0.23755500    2.42285400   -0.48989400
 C         2.65603100   -0.56616300    0.12731600
 H         0.88082400   -1.74582400    0.34479100
 C         3.15463300    0.72488200   -0.09123100
 H         2.67696400    2.78916200   -0.47221300
 H         4.22913200    0.89426800   -0.09246100
 C         3.59504300   -1.73135000    0.34177300
 H         3.09247800   -2.56451300    0.84379900
 H         3.98297200   -2.11052700   -0.61319200
 H         4.46039500   -1.44314100    0.94901900


--Link1--

%chk=3.chk
# b3lyp/6-31g(d) gfinput pop=full iop(3/33=1)

Title Card Required

0 1
 C        -3.02328500   -1.41484500   -0.25351200
 C        -1.64893600   -1.19288400   -0.31465100
 C        -1.10000200    0.07828200   -0.06476300
 C        -1.99266000    1.11256100    0.27168400
 C        -3.36758000    0.89354300    0.33170700
 C        -3.89293800   -0.37213200    0.06851700
 H        -3.41493200   -2.40678700   -0.46378000
 H        -0.99910600   -2.01437100   -0.59957100
 H        -1.60904400    2.09698200    0.51992400
 H        -4.02888100    1.71428900    0.59741000
 H        -4.96469300   -0.54436200    0.11710900
 C         0.37149400    0.30730500   -0.09149800
 C         0.90769200    1.59933500   -0.22407800
 C         1.27577800   -0.75664400    0.08049500
 C         2.28563400    1.80586800   -0.20705900
 H         0.24983600    2.44831300   -0.37982500
 C         2.66032600   -0.56794100    0.09594300
 H         0.89438600   -1.76119600    0.23856800
 C         3.16031600    0.73280800   -0.04926200
 H         2.67843800    2.81319500   -0.31960500
 H         4.23446400    0.90358400   -0.03311600
 C         3.59908100   -1.74143400    0.26052000
 H         3.07278900   -2.62725400    0.63040200
 H         4.06829600   -2.01270100   -0.69450800
 H         4.40893600   -1.51263100    0.96273900


--Link1--

%chk=4.chk
# b3lyp/6-31g(d) gfinput pop=full iop(3/33=1)

Title Card Required

0 1
 C        -3.01852800   -1.44316900   -0.12416300
 C        -1.64401100   -1.21985400   -0.17155800
 C        -1.10188300    0.07395000   -0.05408300
 C        -2.01207300    1.13142300    0.13366200
 C        -3.38720400    0.91181300    0.18024800
 C        -3.90222900   -0.37812900    0.05095400
 H        -3.39812500   -2.45646800   -0.22736800
 H        -0.99152400   -2.07081700   -0.33454000
 H        -1.64943800    2.14448200    0.26899400
 H        -4.05722300    1.75503000    0.32727300
 H        -4.97428500   -0.55082300    0.08904600
 C         0.37241400    0.30945500   -0.06879100
 C         0.90914300    1.60764500   -0.12611200
 C         1.28513500   -0.75719000    0.03397100
 C         2.28622200    1.81774300   -0.10152400
 H         0.25648700    2.46849700   -0.22098500
 C         2.66905300   -0.56569900    0.05615700
 H         0.91733200   -1.77430300    0.12333300
 C         3.16629700    0.74189500   -0.01134600
 H         2.67329800    2.83226300   -0.15233800
 H         4.23990200    0.91494300    0.01143500
 C         3.61049300   -1.74551900    0.14177100
 H         3.08886100   -2.65282200    0.46302900
 H         4.07121600   -1.95863400   -0.83194600
 H         4.42652100   -1.55752300    0.84895400


--Link1--

%chk=5.chk
# b3lyp/6-31g(d) gfinput pop=full iop(3/33=1)

Title Card Required

0 1
 C        -3.01753700   -1.45300500    0.02838900
 C        -1.64226000   -1.22985500    0.04095400
 C        -1.10293800    0.07052100    0.01458100
 C        -2.02212700    1.13629600   -0.03098400
 C        -3.39790300    0.91714100   -0.04350900
 C        -3.90821400   -0.38057300   -0.01368100
 H        -3.39177100   -2.47325700    0.05209400
 H        -0.98776700   -2.09327500    0.08051200
 H        -1.67029900    2.16121800   -0.06342500
 H        -4.07255400    1.76870700   -0.07899700
 H        -4.98093200   -0.55290500   -0.02388500
 C         0.37254000    0.31002900    0.01794800
 C         0.90840400    1.60981400    0.02564400
 C         1.29089300   -0.75746700   -0.00023900
 C         2.28570900    1.82168500    0.02160300
 H         0.25704300    2.47608300    0.04574700
 C         2.67424800   -0.56445800   -0.00638000
 H         0.93111100   -1.78076900   -0.01568000
 C         3.16928400    0.74582800    0.00660500
 H         2.66938500    2.83871600    0.03255300
 H         4.24300000    0.91986200    0.00492600
 C         3.62011400   -1.74350700   -0.04059400
 H         3.08774500   -2.68968300    0.09892100
 H         4.15172400   -1.80108700   -0.99925100
 H         4.38203800   -1.66831000    0.74446400


--Link1--

%chk=6.chk
# b3lyp/6-31g(d) gfinput pop=full iop(3/33=1)

Title Card Required

0 1
 C        -3.01980100   -1.43521200    0.16841400
 C        -1.64552100   -1.21212100    0.22384700
 C        -1.10127200    0.07579900    0.06220200
 C        -2.00564900    1.12663900   -0.18107900
 C        -3.38054200    0.90701200   -0.23561500
 C        -3.89888100   -0.37630900   -0.06028100
 H        -3.40324300   -2.44264900    0.30830900
 H        -0.99409000   -2.05419500    0.43274100
 H        -1.63606200    2.13107700   -0.35767700
 H        -4.04759700    1.74370600   -0.42675100
 H        -4.97070600   -0.54902700   -0.10467400
 C         0.37210700    0.30889000    0.08133200
 C         0.90905000    1.60548600    0.16243500
 C         1.28175500   -0.75718600   -0.04818100
 C         2.28633800    1.81436700    0.13762600
 H         0.25507500    2.46271400    0.28117400
 C         2.66586100   -0.56670000   -0.07084100
 H         0.90915300   -1.77029000   -0.16278200
 C         3.16434900    0.73898800    0.02249400
 H         2.67549300    2.82686200    0.20883000
 H         4.23809900    0.91123300   -0.00030400
 C         3.60592300   -1.74506600   -0.18611400
 H         3.08270700   -2.64384100   -0.52812300
 H         4.42114500   -1.54117800   -0.88977500
 H         4.06773000   -1.98193300    0.78159800


--Link1--

%chk=7.chk
# b3lyp/6-31g(d) gfinput pop=full iop(3/33=1)

Title Card Required

0 1
 C        -3.02521700   -1.40340500    0.29269300
 C        -1.65061100   -1.18228700    0.35307300
 C        -1.09942000    0.07866600    0.06146100
 C        -1.98692200    1.10382500   -0.31318300
 C        -3.36204300    0.88541000   -0.37238900
 C        -3.89064500   -0.37004400   -0.06898200
 H        -3.42068600   -2.38640000    0.53535300
 H        -1.00130100   -1.99314000    0.66881600
 H        -1.59704400    2.07787700   -0.59181100
 H        -4.02092000    1.69751200   -0.66888000
 H        -4.96253500   -0.54176100   -0.11678800
 C         0.37119800    0.30642800    0.09129800
 C         0.90644300    1.59565200    0.24927300
 C         1.27360900   -0.75608000   -0.09679700
 C         2.28474000    1.80119200    0.23874800
 H         0.24632100    2.44051700    0.41882500
 C         2.65831100   -0.56806100   -0.10616300
 H         0.88881600   -1.75663200   -0.27279000
 C         3.15840800    0.72991400    0.06342500
 H         2.67878400    2.80564500    0.37098400
 H         4.23274700    0.90009200    0.05275700
 C         3.59728000   -1.73837600   -0.29086200
 H         3.06850700   -2.62187400   -0.66265300
 H         4.39902400   -1.50210000   -0.99996200
 H         4.07751600   -2.01674500    0.65657800


--Link1--

%chk=8.chk
# b3lyp/6-31g(d) gfinput pop=full iop(3/33=1)

Title Card Required

0 1
 C        -3.03175300   -1.36175500    0.40887100
 C        -1.65588100   -1.14416900    0.45944800
 C        -1.09788800    0.07686000    0.04213100
 C        -1.97175500    1.06915500   -0.43558000
 C        -3.34799000    0.85358500   -0.48510700
 C        -3.88574800   -0.36352600   -0.06312600
 H        -3.43789300   -2.31158800    0.74718400
 H        -1.00782800   -1.91962900    0.85761900
 H        -1.56570000    2.00887000   -0.79873100
 H        -4.00056500    1.63554500   -0.86487400
 H        -4.95841900   -0.53274000   -0.10270100
 C         0.37059100    0.30373900    0.07986600
 C         0.90096600    1.58210800    0.31500900
 C         1.26990000   -0.75288200   -0.14713800
 C         2.28013500    1.78505800    0.32981500
 H         0.23323200    2.41437700    0.51749600
 C         2.65480100   -0.56649200   -0.13275500
 H         0.87824400   -1.74199400   -0.37052900
 C         3.15296300    0.72146000    0.10843700
 H         2.67573200    2.77949100    0.52041300
 H         4.22764800    0.88996500    0.11901700
 C         3.59657500   -1.72509000   -0.36968000
 H         3.06196300   -2.60778500   -0.73466500
 H         4.36838300   -1.47090000   -1.10564400
 H         4.11569700   -2.01191700    0.55425400


--Link1--

%chk=9.chk
# b3lyp/6-31g(d) gfinput pop=full iop(3/33=1)

Title Card Required

0 1
 C        -3.03937300   -1.30797400    0.52369700
 C        -1.66186800   -1.09533100    0.55918200
 C        -1.09678300    0.07148400    0.01763000
 C        -1.95907700    1.02098400   -0.55603900
 C        -3.33674800    0.80968200   -0.59114700
 C        -3.88329200   -0.35635300   -0.05191500
 H        -3.45487800   -2.21502200    0.95521700
 H        -1.01535800   -1.82980400    1.03167500
 H        -1.54036900    1.92042500   -0.99926400
 H        -3.98369000    1.55421200   -1.04799200
 H        -4.95701700   -0.52155400   -0.07920100
 C         0.37061400    0.30131100    0.06137200
 C         0.89398900    1.56610800    0.36892200
 C         1.26976300   -0.74764300   -0.19548900
 C         2.27344900    1.76683000    0.41196800
 H         0.21864900    2.38619000    0.59629800
 C         2.65443500   -0.56266800   -0.15470900
 H         0.87537000   -1.72632200   -0.45866100
 C         3.14809600    0.71331600    0.15245200
 H         2.66773900    2.74991400    0.65658400
 H         4.22262400    0.88012900    0.18673100
 C         3.60079100   -1.70808200   -0.43377100
 H         3.06419100   -2.59302000   -0.79009700
 H         4.34432700   -1.43792000   -1.19314400
 H         4.15442800   -1.99720700    0.46894100


--Link1--

%chk=10.chk
# b3lyp/6-31g(d) gfinput pop=full iop(3/33=1)

Title Card Required

0 1
 C        -3.04959700   -1.23680700    0.64114700
 C        -1.67049000   -1.03038500    0.66189000
 C        -1.09625600    0.06406000   -0.00492700
 C        -1.94686800    0.95529800   -0.67877400
 C        -3.32611000    0.74974400   -0.69975400
 C        -3.88287900   -0.34787800   -0.04052300
 H        -3.47463900   -2.08798400    1.16693200
 H        -1.02800100   -1.71368700    1.21095700
 H        -1.51704000    1.80365200   -1.20495000
 H        -3.96628400    1.44560300   -1.23599000
 H        -4.95767300   -0.50783600   -0.05586600
 C         0.37133900    0.29882700    0.04304800
 C         0.88715000    1.54904100    0.41289500
 C         1.27206700   -0.74165300   -0.23805100
 C         2.26636100    1.74793800    0.48153300
 H         0.20542700    2.35823300    0.66019100
 C         2.65623600   -0.55806400   -0.17282500
 H         0.87798600   -1.71136700   -0.53388700
 C         3.14424600    0.70535700    0.19081800
 H         2.65754500    2.71970000    0.77212000
 H         4.21818300    0.87045500    0.24696300
 C         3.60758700   -1.69073900   -0.48487800
 H         3.07127200   -2.58004400   -0.83044000
 H         4.32503500   -1.40810100   -1.26488100
 H         4.19147600   -1.97706200    0.39925600


--Link1--

%chk=11.chk
# b3lyp/6-31g(d) gfinput pop=full iop(3/33=1)

Title Card Required

0 1
 C        -3.07215600   -1.12440300    0.77451200
 C        -1.69117700   -0.92757300    0.79235100
 C        -1.09585300    0.05591400   -0.01292800
 C        -1.92403300    0.85356100   -0.81791000
 C        -3.30506700    0.65748600   -0.83629700
 C        -3.88363600   -0.33350700   -0.04110500
 H        -3.51556000   -1.89003300    1.40603800
 H        -1.06338500   -1.53372600    1.44022000
 H        -1.47525100    1.62146000   -1.44272800
 H        -3.92937900    1.27795400   -1.47415500
 H        -4.95960900   -0.48590400   -0.05402100
 C         0.37390100    0.29264000    0.03741000
 C         0.88450600    1.53619400    0.43801300
 C         1.27460200   -0.74335500   -0.25000000
 C         2.26210300    1.73357900    0.52429600
 H         0.19824300    2.33945000    0.69221800
 C         2.65986600   -0.55913900   -0.17259200
 H         0.88156000   -1.71122900   -0.55414700
 C         3.14304000    0.69532300    0.22161000
 H         2.65102400    2.69769700    0.84209100
 H         4.21618700    0.85730900    0.29588500
 C         3.60939800   -1.67887800   -0.53263300
 H         3.16149600   -2.66067900   -0.34582400
 H         3.88191100   -1.64334600   -1.59603800
 H         4.53979600   -1.61600300    0.04209800


--Link1--

%chk=12.chk
# b3lyp/6-31g(d) gfinput pop=full iop(3/33=1)

Title Card Required

0 1
 C        -3.10261300   -0.95270300    0.92648300
 C        -1.72065100   -0.76066600    0.94576100
 C        -1.09716300    0.05676200   -0.00895100
 C        -1.89559800    0.69542300   -0.96957200
 C        -3.27762000    0.50340200   -0.99019400
 C        -3.88517500   -0.32242500   -0.04267400
 H        -3.56886800   -1.58961000    1.67387900
 H        -1.11413000   -1.24363300    1.70743700
 H        -1.42421900    1.33786400   -1.70885100
 H        -3.87975200    0.99917900   -1.74733900
 H        -4.96167100   -0.47115100   -0.05736800
 C         0.37621900    0.29129900    0.03783500
 C         0.88881300    1.53766800    0.42475600
 C         1.27306400   -0.74942200   -0.24120200
 C         2.26726300    1.73279300    0.50796800
 H         0.20415300    2.34601500    0.66685700
 C         2.65924700   -0.56758200   -0.16706500
 H         0.87699600   -1.72043800   -0.53101000
 C         3.14531200    0.68944000    0.21472600
 H         2.65891700    2.69953800    0.81425900
 H         4.21890700    0.84967800    0.28677600
 C         3.60563800   -1.69360700   -0.51544600
 H         3.15703300   -2.67200700   -0.31305400
 H         3.87358500   -1.67347900   -1.58043700
 H         4.53863700   -1.62425200    0.05429500


--Link1--

%chk=13.chk
# b3lyp/6-31g(d) gfinput pop=full iop(3/33=1)

Title Card Required

0 1
 C        -3.14723600   -0.63939900    1.10565600
 C        -1.76524700   -0.44554000    1.12410600
 C        -1.09918100    0.06809700    0.00177600
 C        -1.85228700    0.39517500   -1.13517400
 C        -3.23432400    0.20124400   -1.15493200
 C        -3.88564200   -0.31729500   -0.03443200
 H        -3.64746200   -1.03880100    1.98424700
 H        -1.19266200   -0.69209600    2.01442800
 H        -1.34674800    0.79917400   -2.00842400
 H        -3.80201500    0.45575400   -2.04634100
 H        -4.96193400   -0.46764800   -0.04883600
 C         0.37836400    0.29587300    0.03120400
 C         0.89939600    1.57256500    0.28136700
 C         1.26699700   -0.77228900   -0.15256700
 C         2.27980900    1.76741900    0.33389600
 H         0.22088000    2.40652500    0.43921800
 C         2.65469700   -0.59171900   -0.10779100
 H         0.86362700   -1.76551300   -0.33788500
 C         3.14997500    0.69474100    0.14158000
 H         2.67874900    2.75879000    0.53351700
 H         4.22496200    0.85538800    0.18841500
 C         3.59367000   -1.75202600   -0.34671500
 H         3.12709200   -2.70678500   -0.08223700
 H         3.88776800   -1.81520300   -1.40308500
 H         4.51379300   -1.65065600    0.23914100


--Link1--

%chk=14.chk
# b3lyp/6-31g(d) gfinput pop=full iop(3/33=1)

Title Card Required

0 1
 C        -3.19791800   -0.12107600    1.20967800
 C        -1.81735000    0.08421600    1.20191900
 C        -1.10119000    0.09050600   -0.00372800
 C        -1.80011200   -0.11588200   -1.20181400
 C        -3.18072300   -0.32105400   -1.19530600
 C        -3.88351300   -0.32413500    0.01079200
 H        -3.73759300   -0.12275800    2.15329900
 H        -1.28528400    0.24168400    2.13648400
 H        -1.25453200   -0.11348700   -2.14183700
 H        -3.70694200   -0.47836000   -2.13339100
 H        -4.95853500   -0.48390900    0.01641600
 C         0.37900200    0.30828600   -0.01148800
 C         0.91163100    1.60193300   -0.07887800
 C         1.25809400   -0.78238100    0.04652700
 C         2.29451500    1.79086400   -0.08442100
 H         0.24109900    2.45586600   -0.12337800
 C         2.64692300   -0.60935800    0.03869600
 H         0.84592100   -1.78757500    0.10094900
 C         3.15451200    0.69542100   -0.02498100
 H         2.70235800    2.79743700   -0.13243300
 H         4.23115500    0.85228800   -0.02660000
 C         3.57717900   -1.80034900    0.07691500
 H         3.06163500   -2.70024100    0.42747100
 H         3.98242100   -2.02180500   -0.91945700
 H         4.43199700   -1.62108300    0.73900500


--Link1--

%chk=15.chk
# b3lyp/6-31g(d) gfinput pop=full iop(3/33=1)

Title Card Required

0 1
 C        -3.27847900    0.55251700    0.95383400
 C        -1.90160900    0.77343300    0.90558100
 C        -1.10117300    0.11027600   -0.03698700
 C        -1.71179600   -0.79844900   -0.91464900
 C        -3.08867600   -1.01936600   -0.86773700
 C        -3.87647000   -0.34367900    0.06607700
 H        -3.88308600    1.07495000    1.69080900
 H        -1.43610400    1.46307800    1.60494400
 H        -1.10042400   -1.32297900   -1.64431300
 H        -3.54631400   -1.71965200   -1.56186500
 H        -4.94874200   -0.51684900    0.10369500
 C         0.37547100    0.31939300   -0.06494100
 C         0.91856100    1.55217500   -0.44955300
 C         1.24853000   -0.73653200    0.23925700
 C         2.30288400    1.72285400   -0.50332000
 H         0.25456100    2.37244300   -0.70879900
 C         2.63749000   -0.58100600    0.19017300
 H         0.82889200   -1.69600800    0.53331900
 C         3.15492400    0.66709000   -0.18515700
 H         2.71781600    2.68231900   -0.80179600
 H         4.23270400    0.80961500   -0.22964800
 C         3.56207300   -1.72829500    0.52834000
 H         3.00300900   -2.60609600    0.86715200
 H         4.15995100   -2.02968200   -0.34126300
 H         4.26736900   -1.45361400    1.32226000


--Link1--

%chk=16.chk
# b3lyp/6-31g(d) gfinput pop=full iop(3/33=1)

Title Card Required

0 1
 C        -3.30454900    0.68505100    0.80751500
 C        -1.92795000    0.90496000    0.75818900
 C        -1.09963300    0.10078900   -0.04060000
 C        -1.68578700   -0.94541400   -0.77038000
 C        -3.06220000   -1.16629000   -0.72127200
 C        -3.87665300   -0.35108900    0.06698400
 H        -3.92943000    1.31746300    1.43296500
 H        -1.48318000    1.70159400    1.34894700
 H        -1.05593100   -1.57591400   -1.39248700
 H        -3.49920600   -1.97427300   -1.30249100
 H        -4.94892900   -0.52377600    0.10598900
 C         0.37318200    0.31566100   -0.06635200
 C         0.91124900    1.55337600   -0.44475000
 C         1.25316900   -0.73624700    0.23482800
 C         2.29423900    1.73210600   -0.49562800
 H         0.24362600    2.36996000   -0.70630100
 C         2.64090100   -0.57274800    0.18794100
 H         0.83971700   -1.69818200    0.52958200
 C         3.15212600    0.67985300   -0.18129100
 H         2.70395800    2.69486500   -0.79063500
 H         4.22909400    0.82869300   -0.22384200
 C         3.57142000   -1.71553700    0.52496400
 H         3.01621100   -2.60198500    0.84725500
 H         4.18258100   -2.00176300   -0.34046200
 H         4.26441000   -1.44350900    1.33058700


--Link1--

%chk=17.chk
# b3lyp/6-31g(d) gfinput pop=full iop(3/33=1)

Title Card Required

0 1
 C        -3.32383100    0.76809200    0.67783100
 C        -1.94696300    0.98446600    0.63204500
 C        -1.09801800    0.08634400   -0.03535300
 C        -1.66974100   -1.04316400   -0.64360300
 C        -3.04644800   -1.26050000   -0.59791800
 C        -3.87937700   -0.35522700    0.06237100
 H        -3.96251000    1.47319100    1.20367500
 H        -1.51788300    1.84928600    1.13118200
 H        -1.02850300   -1.74251300   -1.17352100
 H        -3.46966100   -2.13575700   -1.08414100
 H        -4.95221100   -0.52465400    0.09845700
 C         0.37148600    0.30844800   -0.06669900
 C         0.90238900    1.56127900   -0.40630400
 C         1.26107200   -0.74230000    0.21234800
 C         2.28357100    1.75187000   -0.44996400
 H         0.23074100    2.37964700   -0.65106700
 C         2.64724200   -0.56719100    0.17166000
 H         0.85683800   -1.71311900    0.48982300
 C         3.14978300    0.69842800   -0.16316400
 H         2.68575300    2.72582200   -0.71724800
 H         4.22555700    0.85696700   -0.19883400
 C         3.58559700   -1.71209800    0.47847100
 H         3.04037900   -2.59242200    0.83305900
 H         4.15545400   -2.01051300   -0.41094400
 H         4.31547400   -1.43661500    1.24923800


--Link1--

%chk=18.chk
# b3lyp/6-31g(d) gfinput pop=full iop(3/33=1)

Title Card Required

0 1
 C        -3.34021700    0.82551800    0.55668500
 C        -1.96302400    1.03830200    0.51677900
 C        -1.09708000    0.07344600   -0.02558100
 C        -1.65977200   -1.11270300   -0.52677900
 C        -3.03674500   -1.32706500   -0.48620500
 C        -3.88387100   -0.35877000    0.05578000
 H        -3.98902200    1.58326600    0.98845700
 H        -1.54812600    1.95173400    0.93392100
 H        -1.01265200   -1.86132600   -0.97535800
 H        -3.44929900   -2.24921500   -0.88748900
 H        -4.95725100   -0.52538600    0.08717200
 C         0.37052400    0.30201600   -0.06758400
 C         0.89626500    1.57146300   -0.35242700
 C         1.26953100   -0.74955600    0.18018200
 C         2.27569200    1.77294400   -0.38635800
 H         0.22326800    2.39538500   -0.57228200
 C         2.65430700   -0.56406600    0.14791600
 H         0.87569900   -1.73154300    0.43109100
 C         3.14957300    0.71599800   -0.13857000
 H         2.67061300    2.75982100   -0.61407200
 H         4.22420100    0.88341300   -0.16519800
 C         3.59914000   -1.71375100    0.41428500
 H         3.06271500   -2.59832100    0.77184200
 H         4.14345000   -2.00142400   -0.49461000
 H         4.35046700   -1.44905600    1.16778700


--Link1--

%chk=19.chk
# b3lyp/6-31g(d) gfinput pop=full iop(3/33=1)

Title Card Required

0 1
 C        -3.34021700    0.82551800    0.55668500
 C        -1.96302400    1.03830200    0.51677900
 C        -1.09708000    0.07344600   -0.02558100
 C        -1.65977200   -1.11270300   -0.52677900
 C        -3.03674500   -1.32706500   -0.48620500
 C        -3.88387100   -0.35877000    0.05578000
 H        -3.98902200    1.58326600    0.98845700
 H        -1.54812600    1.95173400    0.93392100
 H        -1.01265200   -1.86132600   -0.97535800
 H        -3.44929900   -2.24921500   -0.88748900
 H        -4.95725100   -0.52538600    0.08717200
 C         0.37052400    0.30201600   -0.06758400
 C         0.89626500    1.57146300   -0.35242700
 C         1.26953100   -0.74955600    0.18018200
 C         2.27569200    1.77294400   -0.38635800
 H         0.22326800    2.39538500   -0.57228200
 C         2.65430700   -0.56406600    0.14791600
 H         0.87569900   -1.73154300    0.43109100
 C         3.14957300    0.71599800   -0.13857000
 H         2.67061300    2.75982100   -0.61407200
 H         4.22420100    0.88341300   -0.16519800
 C         3.59914000   -1.71375100    0.41428500
 H         3.06271500   -2.59832100    0.77184200
 H         4.14345000   -2.00142400   -0.49461000
 H         4.35046700   -1.44905600    1.16778700

