%nprocshared=28
%mem=58GB
%chk=BF3.chk
# opt freq b3lyp/6-31g pop=full gfinput iop(3/33=1)

Title Card Required

0 1
 B                  0.00000000    0.00000000    0.00000000
 F                  0.00000000    1.31773800    0.00000000
 F                  1.14119400   -0.65886900    0.00000000
 F                 -1.14119400   -0.65886900    0.00000000

