%nprocshared=28
%mem=58GB
%chk=since4_s.chk
# ub3lyp/sdd pop=full gfinput iop(3/33=1)

Title Card Required

2 2
 Rh                -0.24242900   -0.01349700    0.01334300
 P                  1.56265800   -0.86316900   -1.32791900
 P                  1.55083400    0.97255200    1.27288100
 N                  2.13655400   -2.49493200   -1.53504800
 N                  1.88277600    0.62707400    2.95406000
 N                  1.99645600    2.64575000    1.46358600
 N                  1.78629100   -0.50307100   -3.02482600
 N                 -2.50346100   -1.62813300   -1.42672200
 N                 -2.54710900    1.44101900    1.55084700
 C                 -1.62639700   -1.01599500   -0.92135800
 C                 -1.65046700    0.88986500    1.01100200
 C                  2.34452000    3.58451000    0.42576100
 C                  2.25732400    0.08696600   -0.04658800
 C                  3.71417700    3.76455700    0.10128900
 C                  4.79225500    2.92161300    0.75603600
 H                  4.87201800    3.12438900    1.83277100
 H                  5.77156000    3.12611300    0.31038500
 H                  4.58452000    1.84968900    0.64552200
 C                  1.61860600    0.78467600   -3.65495800
 C                  3.09453300    5.55934600   -1.46575100
 C                  2.67801600    1.72985700   -3.62864000
 C                  2.60987700   -3.39472100   -0.51252600
 C                  1.34546600    4.37356600   -0.20012600
 C                  1.73964900    5.34819400   -1.13567200
 H                  0.97464000    5.95870000   -1.61262500
 C                 -3.57539800   -2.38612800   -2.04915100
 C                  4.00426000   -3.46580500   -0.25962500
 C                  1.86110200   -0.67263200    3.58203200
 C                  4.47961700   -4.41697400    0.66573500
 H                  5.54975200   -4.48033700    0.85347700
 C                  2.42962900   -1.60946600   -3.77825900
 H                  3.50909300   -1.42927200   -3.89131500
 H                  1.98594700   -1.67926800   -4.77750300
 C                  3.49033100    6.63411400   -2.46112400
 H                  2.95213900    6.51688200   -3.41119800
 H                  4.56424600    6.60899300   -2.67615100
 H                  3.25240300    7.63582300   -2.07804600
 C                  3.98686500    1.42874800   -2.92309800
 H                  4.52278600    0.59961900   -3.40515600
 H                  3.82114700    1.15246500   -1.87511700
 H                  4.64454800    2.30351800   -2.93975600
 C                  2.46227200    1.78183500    3.68665800
 H                  3.55666800    1.69228400    3.75420800
 H                  2.05616700    1.81135500    4.70383000
 C                  1.32687300    3.26276600   -5.00368400
 C                  0.30030300    2.29707300   -5.03377500
 H                 -0.61186900    2.50770800   -5.58902900
 C                  4.06555600    4.75242800   -0.84072900
 H                  5.11627400    4.89875300   -1.08369400
 C                  2.16837300   -2.89691900   -2.96334100
 H                  1.21640300   -3.36012500   -3.26491000
 H                  2.96712900   -3.62984300   -3.11428400
 C                  2.50927400    2.95544300   -4.30142400
 H                  3.32008900    3.68070800   -4.27969400
 C                  0.42530800    1.06048300   -4.37123800
 C                  2.06103600    3.04553900    2.89127400
 H                  1.08974200    3.42998700    3.23863800
 H                  2.80422800    3.84024200    3.01027400
 C                  3.00740200   -1.50854700    3.51659500
 C                  1.15880800    4.60097000   -5.69886400
 H                  2.11508700    4.97978400   -6.07865400
 H                  0.75814600    5.35580500   -5.00630500
 H                  0.46315400    4.53199400   -6.54306700
 C                  4.25073100   -1.08521800    2.75722200
 H                  4.72812600   -0.21001300    3.21884400
 H                  4.01391900   -0.82530000    1.71860700
 H                  4.98733600   -1.89470100    2.74115400
 C                  4.97819800   -2.54678800   -0.97269400
 H                  5.02649100   -2.75852100   -2.04966600
 H                  5.99012700   -2.66321400   -0.57030600
 H                  4.68704400   -1.49422100   -0.86501200
 C                  3.60770700   -5.29124900    1.34385500
 C                  1.70849000   -4.25266500    0.16862500
 C                 -3.65325800    2.12532900    2.19792200
 C                 -2.96734200   -3.40759400   -3.05447800
 H                 -2.28215900   -4.08109000   -2.52141400
 H                 -2.38560200   -2.86957300   -3.81549400
 C                 -0.12458200    4.17548500    0.11380200
 H                 -0.71952000    5.01513200   -0.26262900
 H                 -0.29991000    4.08222600    1.19256400
 H                 -0.50321300    3.25747400   -0.35508100
 C                  2.98656000   -2.74174700    4.19592300
 H                  3.86426400   -3.38279100    4.14494300
 C                  0.21354500   -4.17025400   -0.07022900
 H                 -0.20725200   -3.26766800    0.39271500
 H                 -0.29793900   -5.03860200    0.35979700
 H                 -0.02333100   -4.12338000   -1.14035600
 C                 -6.46497100   -2.98187000   -2.37574300
 H                 -7.28940300   -3.54374200   -2.83564900
 H                 -6.91582600   -2.26764000   -1.67099600
 C                  4.13654200   -6.32392000    2.32183500
 H                  3.93118400   -7.34426500    1.97069600
 H                  3.66188900   -6.22104800    3.30689600
 H                  5.21965600   -6.23259300    2.45837900
 C                  0.72527200   -1.06630300    4.33544900
 C                  2.22495400   -5.18680200    1.08562300
 H                  1.53529400   -5.85032400    1.60478500
 C                 -4.52401900   -1.41012600   -2.80579100
 H                 -3.95245800   -0.85806200   -3.56408900
 H                 -4.93419400   -0.67657200   -2.09788700
 C                 -5.06130300   -3.24237700   -4.47223300
 H                 -4.51024800   -2.71400200   -5.26398000
 H                 -5.86535300   -3.80820000   -4.96232600
 C                 -0.69636500    0.04345300   -4.45325400
 H                 -1.10623600   -0.17320200   -3.46116800
 H                 -0.34834800   -0.90947200   -4.87393900
 H                 -1.50893000    0.41442600   -5.08793700
 C                  0.74936800   -2.30584900    5.00422600
 H                 -0.11766700   -2.60515500    5.59029000
 C                 -4.11571200   -4.21398200   -3.71718800
 H                 -3.67994500   -4.93225600   -4.42443200
 C                  1.86685800   -3.16250300    4.94094000
 C                 -4.37483600   -3.14698500   -0.95079400
 H                 -4.78329500   -2.42537000   -0.22967000
 H                 -3.69810000   -3.81763900   -0.40399200
 C                 -4.91334800   -4.97296200   -2.62370800
 H                 -4.25661200   -5.67993900   -2.09596500
 H                 -5.71531100   -5.56336500   -3.08753400
 C                 -5.51845300   -3.95374100   -1.62192800
 H                 -6.07806200   -4.48743400   -0.84222400
 C                 -5.66646700   -2.22422200   -3.46948100
 H                 -6.33109100   -1.53028000   -4.00119800
 C                 -4.65870100    1.07039500    2.74664000
 H                 -4.14532000    0.41158300    3.46021500
 H                 -5.02199700    0.44659800    1.91807800
 C                 -0.49856800   -0.17733600    4.44176800
 H                 -0.23180200    0.85210200    4.71187800
 H                 -1.19096000   -0.56100600    5.19946200
 H                 -1.03180400   -0.13040700    3.48513700
 C                  1.85976400   -4.50618100    5.64578700
 H                  1.50776700   -5.30144900    4.97225600
 H                  1.19515500   -4.50039100    6.51737700
 H                  2.86317900   -4.78650700    5.98746800
 C                 -5.84066600    1.80400300    3.43426200
 H                 -6.54546000    1.05464500    3.81865700
 C                 -4.36883000    3.04083200    1.16119200
 H                 -4.72948700    2.43067600    0.32152200
 H                 -3.65107800    3.76887600    0.75941300
 C                 -5.30181400    2.66650200    4.60638200
 H                 -4.81139400    2.02674300    5.35461600
 H                 -6.13508300    3.17301800    5.11228900
 C                 -6.55513200    2.71606400    2.40186400
 H                 -7.40671100    3.22274100    2.87621800
 H                 -6.95918700    2.11176900    1.57625600
 C                 -3.11140200    2.99084600    3.37293400
 H                 -2.58698100    2.34613400    4.09120800
 H                 -2.38697900    3.72063300    2.98525900
 C                 -5.55183500    3.76660300    1.85570600
 H                 -6.05179300    4.41011000    1.11958800
 C                 -4.29923300    3.71705300    4.05886100
 H                 -3.91039800    4.32525300    4.88643400
 C                 -5.01298100    4.63028700    3.02702800
 H                 -4.31644600    5.39235200    2.64786700
 H                 -5.84221300    5.16439700    3.51072100

